#!/bin/sh
set -e

MODPATH=/etc/initramfs-tools/modules
for MOD in pwm-lpss-platform; do
    if ! grep -q "^${MOD}$" ${MODPATH}; then
        echo "Adding ${MOD} to ${MODPATH}"
        echo ${MOD} >> ${MODPATH}
    fi
done

update-initramfs -k all -u
update-grub

#DEBHELPER#
